13
Lattice="14.257214000000001 0.0 0.0 0.0 13.686855 0.0 0.0 0.0 11.511357" Properties=species:S:1:pos:R:3:Z:I:1:initial_magmoms:R:1 pbc="T T T"
C       7.12860700       6.74108600       6.28572100        6       1.00000000 
C       7.12860700       8.21927300       6.07292600        6       0.00000000 
C       8.40875400       6.00199300       6.07292600        6       0.00000000 
C       5.84846000       6.00199300       6.07292600        6       0.00000000 
H       7.12860700       8.47258200       5.00000000        1       0.00000000 
H       6.24156400       8.68685500       6.51135700        1       0.00000000 
H       8.01565000       8.68685500       6.51135700        1       0.00000000 
H       8.62812700       5.87533800       5.00000000        1       0.00000000 
H       9.25721400       6.53640300       6.51135700        1       0.00000000 
H       8.37017100       5.00000000       6.51135700        1       0.00000000 
H       5.62908700       5.87533800       5.00000000        1       0.00000000 
H       5.88704300       5.00000000       6.51135700        1       0.00000000 
H       5.00000000       6.53640300       6.51135700        1       0.00000000 
