4
Lattice="11.86786 0.0 0.0 0.0 11.617615 0.0 0.0 0.0 10.0" Properties=species:S:1:pos:R:3:Z:I:1:initial_magmoms:R:1 pbc="T T T"
C       5.93393000       5.53920500       5.00000000        6       1.00000000 
H       5.93393000       6.61761500       5.00000000        1       0.00000000 
H       6.86786000       5.00000000       5.00000000        1       0.00000000 
H       5.00000000       5.00000000       5.00000000        1       0.00000000 
