7
Lattice="13.279833 0.0 0.0 0.0 12.885606 0.0 0.0 0.0 11.763098" Properties=species:S:1:pos:R:3:Z:I:1 pbc="T T T"
C       6.24395000       6.69480300       5.88154900        6 
O       6.37060100       7.88560600       5.88154900        8 
F       5.00000000       6.12566200       5.88154900        9 
C       7.29340400       5.63218300       5.88154900        6 
H       8.27983300       6.09130800       5.88154900        1 
H       7.16881900       5.00000000       6.76309800        1 
H       7.16881900       5.00000000       5.00000000        1 
