12
Lattice="11.760422 0.0 0.0 0.0 14.306084 0.0 0.0 0.0 13.358001" Properties=species:S:1:pos:R:3:Z:I:1 pbc="T T T"
C       5.88021100       7.15304200       7.78839900        6 
C       5.88021100       7.15304200       6.44918000        6 
H       5.88021100       8.07734400       8.35800100        1 
H       5.88021100       6.22874000       8.35800100        1 
C       5.88021100       8.42572500       5.65078900        6 
H       5.88021100       9.30608400       6.29800400        1 
H       6.76042200       8.47658400       5.00000000        1 
H       5.00000000       8.47658400       5.00000000        1 
C       5.88021100       5.88035900       5.65078900        6 
H       5.88021100       5.00000000       6.29800400        1 
H       5.00000000       5.82950000       5.00000000        1 
H       6.76042200       5.82950000       5.00000000        1 
