6
Lattice="12.092179999999999 0.0 0.0 0.0 12.779831999999999 0.0 0.0 0.0 10.0" Properties=species:S:1:pos:R:3:Z:I:1 pbc="T T T"
C       6.04609000       7.14634600       5.00000000        6 
C       6.04609000       5.63348600       5.00000000        6 
O       7.09218000       7.77983200       5.00000000        8 
H       5.04615000       7.61810700       5.00000000        1 
O       5.00000000       5.00000000       5.00000000        8 
H       7.04603000       5.16172500       5.00000000        1 
